Version 4
SHEET 1 1092 680
WIRE -128 96 -224 96
WIRE -16 96 -128 96
WIRE 64 96 -16 96
WIRE 192 96 160 96
WIRE 416 96 272 96
WIRE -224 112 -224 96
WIRE 416 112 416 96
WIRE -16 192 -16 96
WIRE 112 192 112 160
WIRE 112 192 80 192
WIRE 144 192 112 192
WIRE 272 192 272 96
WIRE 272 192 224 192
WIRE 416 192 416 176
WIRE 416 208 416 192
WIRE -128 304 -128 96
WIRE -160 320 -192 320
WIRE 32 336 -96 336
WIRE -160 352 -288 352
WIRE -288 368 -288 352
WIRE -128 400 -128 368
WIRE -192 448 -192 320
WIRE 272 448 272 192
WIRE 272 448 -192 448
FLAG 416 208 0
FLAG -224 192 0
FLAG -128 400 0
FLAG -288 448 0
SYMBOL npn 64 160 R270
WINDOW 0 83 1 VRight 2
WINDOW 3 82 43 VRight 2
SYMATTR InstName Q1
SYMBOL npn -16 256 R270
WINDOW 0 81 7 VRight 2
WINDOW 3 81 44 VRight 2
SYMATTR InstName Q2
SYMBOL Opamps\\LT1007 -128 272 R0
SYMATTR InstName U1
SYMBOL res 16 240 R0
SYMATTR InstName R2
SYMATTR Value 1000
SYMBOL voltage -224 96 R0
WINDOW 123 0 0 Left 2
WINDOW 39 0 0 Left 2
SYMATTR InstName V2
SYMATTR Value 12
SYMBOL voltage -288 352 R0
SYMATTR InstName V3
SYMATTR Value 5
SYMBOL res 176 112 R270
WINDOW 0 32 56 VTop 2
WINDOW 3 0 56 VBottom 2
SYMATTR InstName R3
SYMATTR Value 0.1
SYMBOL res 240 176 R90
WINDOW 0 0 56 VBottom 2
WINDOW 3 32 56 VTop 2
SYMATTR InstName R1
SYMATTR Value 1000
SYMBOL res 400 96 R0
SYMATTR InstName R4
SYMATTR Value r=11-100*time
TEXT -322 520 Left 2 !.tran 100ms startup
