Version 4
SHEET 1 1592 1600
WIRE 768 80 704 80
WIRE -128 96 -224 96
WIRE -16 96 -128 96
WIRE 64 96 -16 96
WIRE 272 96 160 96
WIRE 336 96 272 96
WIRE 432 96 336 96
WIRE 768 96 768 80
WIRE -224 112 -224 96
WIRE 336 128 336 96
WIRE -16 192 -16 96
WIRE 112 192 112 160
WIRE 112 192 80 192
WIRE 144 192 112 192
WIRE 272 192 272 96
WIRE 272 192 224 192
WIRE -128 304 -128 96
WIRE -160 320 -192 320
WIRE 0 336 -96 336
WIRE 32 336 0 336
WIRE -160 352 -288 352
WIRE -288 368 -288 352
WIRE 0 368 0 336
WIRE -128 400 -128 368
WIRE 160 400 144 400
WIRE -192 448 -192 320
WIRE 0 448 0 432
WIRE 0 448 -192 448
WIRE 144 448 144 400
WIRE 144 448 0 448
WIRE 224 448 224 400
WIRE 272 448 272 192
WIRE 272 448 224 448
WIRE 144 480 144 448
WIRE 224 480 224 448
FLAG -224 192 0
FLAG -128 400 0
FLAG -288 448 0
FLAG 432 176 0
FLAG 768 176 0
FLAG 704 80 LOAD_OHM
FLAG 336 192 0
SYMBOL npn 64 160 R270
WINDOW 0 83 1 VRight 2
WINDOW 3 82 43 VRight 2
SYMATTR InstName Q1
SYMATTR Value 2N3055
SYMBOL npn -16 256 R270
WINDOW 0 81 7 VRight 2
WINDOW 3 81 44 VRight 2
SYMATTR InstName Q2
SYMATTR Value 2N2219
SYMBOL Opamps\\LT1007 -416 176 R0
SYMATTR InstName U1
SYMBOL res 16 240 R0
SYMATTR InstName R2
SYMATTR Value 1000
SYMBOL voltage -224 96 R0
WINDOW 123 0 0 Left 2
WINDOW 39 0 0 Left 2
SYMATTR InstName V2
SYMATTR Value 12
SYMBOL voltage -288 352 R0
SYMATTR InstName V3
SYMATTR Value 5
SYMBOL res 240 176 R90
WINDOW 0 0 56 VBottom 2
WINDOW 3 32 56 VTop 2
SYMATTR InstName R1
SYMATTR Value 1000
SYMBOL voltage 768 80 R0
WINDOW 123 0 0 Left 2
WINDOW 39 0 0 Left 2
SYMATTR InstName LOAD_CONTROL
SYMATTR Value PULSE(10 1.67 0 100ns 100ns 0.5ms 1ms 0)
SYMBOL res 416 80 R0
SYMATTR InstName LOAD
SYMATTR Value R=V(LOAD_OHM)
SYMBOL cap 320 128 R0
SYMATTR InstName C1
SYMATTR Value 10µ
SYMATTR SpiceLine Rser=0.1
SYMBOL res 240 464 R90
WINDOW 0 0 56 VBottom 2
WINDOW 3 32 56 VTop 2
SYMATTR InstName R3
SYMATTR Value 56k
SYMBOL cap 224 384 R90
WINDOW 0 0 32 VBottom 2
WINDOW 3 32 32 VTop 2
SYMATTR InstName C2
SYMATTR Value 100p
SYMBOL cap -16 368 R0
SYMATTR InstName C3
SYMATTR Value 100p
SYMBOL Opamps\\opamp2 -128 272 R0
SYMATTR InstName U2
SYMATTR Value LM833
TEXT -320 520 Left 2 !.tran 5ms startup
TEXT 304 600 Left 2 !.MODEL 2N2219  NPN (IS=2.20f NF=1.00 BF=240 VAF=114\n+ IKF=0.293 ISE=2.73p NE=2.00 BR=4.00 NR=1.00\n+ VAR=24.0 IKR=0.600 RE=0.194 RB=0.777 RC=77.7m\n+ XTB=1.5 CJE=24.9p VJE=1.10 MJE=0.500 CJC=12.4p VJC=0.300\n+ MJC=0.300 TF=371p TR=64.0n EG=1.12 )
TEXT 304 768 Left 2 !.MODEL 2n3055 npn\n+IS=2.37426e-14 BF=129.119 NF=0.85 VAF=31.1252\n+IKF=0.990922 ISE=2.47498e-10 NE=1.89002 BR=1.01252\n+NR=0.924456 VAR=254.624 IKR=2.70227 ISC=2.47498e-10\n+NC=2.90624 RB=3.66609 IRB=0.1 RBM=0.1\n+RE=0.000352673 RC=0.0764459 XTB=1.34801 XTI=1.07207\n+EG=1.206 CJE=9.03089e-08 VJE=0.513954 MJE=0.59999\n+TF=1e-08 XTF=1.36696 VTF=1.02605 ITF=0.987296\n+CJC=5e-10 VJC=0.400243 MJC=0.410238 XCJC=0.803124\n+FC=0.661216 CJS=0 VJS=0.75 MJS=0.5\n+TR=1e-07 PTF=0 KF=0 AF=1
TEXT 968 576 Left 2 !.SUBCKT LM833 1 2 3 4 5\n*\nC1   11 12 3.501E-12\nC2    6  7 10.00E-12\nDC    5 53 DX\nDE   54  5 DX\nDLP  90 91 DX\nDLN  92 90 DX\nDP    4  3 DX\nEGND 99  0 POLY(2) (3,0) (4,0) 0 .5 .5\nFB    7 99 POLY(5) VB VC VE VLP VLN 0 27.96E6\n+ -30E6 30E6 30E6 -30E6\nGA    6  0 11 12 565.5E-6\nGCM   0  6 10 99 5.655E-9\nISS  10  4 DC 70.00E-6\nHLIM 90  0 VLIM 1K\nJ1   11  2 10 JX\nJ2   12  1 10 JX\nR2    6  9 100.0E3\nRD1   3 11 1.768E3\nRD2   3 12 1.768E3\nRO1   8  5 10\nRO2   7 99 20\nRP    3  4 29.03E3\nRSS  10 99 2.857E6\nVB    9  0 DC 0\nVC    3 53 DC .9\nVE   54  4 DC .4\nVLIM  7  8 DC 0\nVLP  91  0 DC 30\nVLN   0 92 DC 30\n.MODEL DX D(IS=800.0E-18)\n.MODEL JX NJF(IS=150.0E-9 BETA=4.568E-3\n+ VTO=-1)\n.ENDS
